15
 generated by VMD
 O        23.335665       15.873510       16.996653
 H        24.048157       15.970156       16.364794
 H        23.398754       14.965101       17.291683
 O        25.032812       19.825533       18.146692
 H        25.672733       20.188511       18.759048
 H        24.577894       19.149229       18.648584
 O        23.536015       17.452635       19.166271
 H        23.567085       16.897799       18.386896
 H        22.699060       17.912334       19.099806
 O        25.157354       15.938092       20.872507
 H        24.534573       16.417370       20.326004
 H        24.730516       15.098241       21.041885
 O        21.029652       18.694857       18.907682
 H        21.269863       19.586180       19.160814
 H        20.498936       18.804741       18.118696
